Circuit: * Z:\home\ostoja\Elektronika\voltmeter_module\simulacije\001_tl_ncs_combo.asc

WARNING: Less than two connections to node -5V.  This node is used by V3.
WARNING: Less than two connections to node 5V.  This node is used by V4.
Early termination of direct N-R iteration.
Direct Newton iteration failed to find .op point.  (Use ".option noopiter" to skip.)
Starting Gmin stepping
Gmin = 10
vernier = 0.5
vernier = 0.25
vernier = 0.125
Gmin = 5.5165
vernier = 0.0625
vernier = 0.03125
vernier = 0.015625
vernier = 0.0078125
Gmin = 5.49501
vernier = 0.00390625
vernier = 0.00195313
vernier = 0.000976563
vernier = 0.000488281
Gmin = 5.50104
Gmin = 0
Gmin stepping failed

Starting source stepping with srcstepmethod=0
Source Step = 3.0303%
Source Step = 33.3333%
Source Step = 63.6364%
Source Step = 93.9394%
Source stepping succeeded in finding the operating point.


Date: Sun Nov 10 20:34:51 2024
Total elapsed time: 0.134 seconds.

tnom = 27
temp = 27
method = modified trap
totiter = 3772
traniter = 2112
tranpoints = 1057
accept = 1051
rejected = 6
matrix size = 60
fillins = 175
solver = Normal
Matrix Compiler1: 10.98 KB object code size  1.7/0.5/[0.5]
Matrix Compiler2: 8.05 KB object code size  0.6/0.5/[0.4]

