Circuit: * C:\users\ostoja\Desktop\Elektronika\voltmeter_module\simulacije\002_bootstrapped_input_buffer.asc

Instance "m:u2:66": Length shorter than recommended for a level 1 MOSFET.
Instance "m:u2:65": Length shorter than recommended for a level 1 MOSFET.
Instance "m:u2:68": Length shorter than recommended for a level 1 MOSFET.
Instance "m:u2:62": Length shorter than recommended for a level 1 MOSFET.
Instance "m:u2:60": Length shorter than recommended for a level 1 MOSFET.
Instance "m:u2:67": Length shorter than recommended for a level 1 MOSFET.
Instance "m:u2:61": Length shorter than recommended for a level 1 MOSFET.
Instance "m:u2:59": Length shorter than recommended for a level 1 MOSFET.
Instance "m:u2:69": Length shorter than recommended for a level 1 MOSFET.
Instance "m:u2:64": Length shorter than recommended for a level 1 MOSFET.
Instance "m:u2:63": Length shorter than recommended for a level 1 MOSFET.
Instance "m:u2:53": Length shorter than recommended for a level 1 MOSFET.
Instance "m:u2:52": Length shorter than recommended for a level 1 MOSFET.
Instance "m:u2:23": Length shorter than recommended for a level 1 MOSFET.
Instance "m:u2:19": Length shorter than recommended for a level 1 MOSFET.
Instance "m:u2:5": Length shorter than recommended for a level 1 MOSFET.
Instance "m:u2:4": Length shorter than recommended for a level 1 MOSFET.
Instance "m:u2:3": Length shorter than recommended for a level 1 MOSFET.
Instance "m:u2:2": Length shorter than recommended for a level 1 MOSFET.
Instance "m:u2:8": Length shorter than recommended for a level 1 MOSFET.
Instance "m:u2:1": Length shorter than recommended for a level 1 MOSFET.
Instance "m:u1:66": Length shorter than recommended for a level 1 MOSFET.
Instance "m:u1:65": Length shorter than recommended for a level 1 MOSFET.
Instance "m:u1:68": Length shorter than recommended for a level 1 MOSFET.
Instance "m:u1:62": Length shorter than recommended for a level 1 MOSFET.
Instance "m:u1:60": Length shorter than recommended for a level 1 MOSFET.
Instance "m:u1:67": Length shorter than recommended for a level 1 MOSFET.
Instance "m:u1:61": Length shorter than recommended for a level 1 MOSFET.
Instance "m:u1:59": Length shorter than recommended for a level 1 MOSFET.
Instance "m:u1:69": Length shorter than recommended for a level 1 MOSFET.
Instance "m:u1:64": Length shorter than recommended for a level 1 MOSFET.
Instance "m:u1:63": Length shorter than recommended for a level 1 MOSFET.
Instance "m:u1:53": Length shorter than recommended for a level 1 MOSFET.
Instance "m:u1:52": Length shorter than recommended for a level 1 MOSFET.
Instance "m:u1:23": Length shorter than recommended for a level 1 MOSFET.
Instance "m:u1:19": Length shorter than recommended for a level 1 MOSFET.
Instance "m:u1:5": Length shorter than recommended for a level 1 MOSFET.
Instance "m:u1:4": Length shorter than recommended for a level 1 MOSFET.
Instance "m:u1:3": Length shorter than recommended for a level 1 MOSFET.
Instance "m:u1:2": Length shorter than recommended for a level 1 MOSFET.
Instance "m:u1:8": Length shorter than recommended for a level 1 MOSFET.
Instance "m:u1:1": Length shorter than recommended for a level 1 MOSFET.
Direct Newton iteration failed to find .op point.  (Use ".option noopiter" to skip.)
Starting Gmin stepping
Gmin = 10
Gmin = 1.07374
vernier = 0.5
vernier = 0.25
vernier = 0.125
vernier = 0.0625
vernier = 0.03125
Gmin = 1.29096
vernier = 0.0416667
vernier = 0.0555555
Gmin = 1.14801
vernier = 0.074074
vernier = 0.037037
vernier = 0.0493827
Gmin = 1.05347
vernier = 0.0246913
vernier = 0.0123457
vernier = 0.00617283
vernier = 0.00308642
vernier = 0.00154321
Gmin = 1.02794
vernier = 0.000771604
vernier = 0.00102881
Gmin = 1.02602
vernier = 0.000514403
Gmin = 0
Gmin stepping failed

Starting source stepping with srcstepmethod=0
Source Step = 3.0303%
Source Step = 33.3333%
Source Step = 45.6439%
Source Step = 46.0997%
Source Step = 46.1293%
Source Step = 46.1589%
Source Step = 46.1884%
Source Step = 46.218%
Source Step = 46.2476%
vernier = 0.00146484
Source Step = 46.292%
Source Step = 46.3364%
Source Step = 46.3808%
Source Step = 46.4252%
Source Step = 46.4696%
vernier = 0.00219727
Source Step = 46.5339%
Source Step = 46.6005%
Source Step = 46.6671%
Source Step = 46.7337%
Source Step = 46.8003%
vernier = 0.0032959
Source Step = 46.8935%
Source Step = 46.9934%
Source Step = 47.0932%
Source Step = 47.1931%
Source Step = 47.293%
vernier = 0.00494385
Source Step = 47.4278%
Source Step = 47.5776%
Source Step = 47.7275%
Source Step = 47.8773%
Source Step = 48.0271%
vernier = 0.00741577
Source Step = 48.2218%
Source Step = 48.4466%
Source Step = 48.6713%
Source Step = 48.896%
Source Step = 49.1207%
vernier = 0.0111237
Source Step = 49.4016%
Source Step = 49.7387%
Source Step = 50.0758%
Source Step = 50.4129%
Source Step = 50.7499%
vernier = 0.0166855
Source Step = 51.1544%
Source Step = 51.6601%
Source Step = 52.1657%
Source Step = 52.6713%
Source Step = 53.1769%
vernier = 0.0250282
Source Step = 53.7584%
Source Step = 54.5168%
Source Step = 55.2753%
Source Step = 56.0337%
Source Step = 56.7921%
vernier = 0.0375423
Source Step = 57.6264%
Source Step = 58.764%
Source Step = 59.9017%
Source Step = 61.0393%
Source Step = 62.177%
vernier = 0.0563135
Source Step = 63.3715%
Source Step = 65.078%
Source Step = 66.7844%
Source Step = 68.4909%
Source Step = 70.1974%
Source Step = 71.9039%
vernier = 0.0844703
Source Step = 74.4636%
Source Step = 77.0233%
Source Step = 79.583%
Source Step = 82.1427%
Source Step = 84.7024%
vernier = 0.126705
Source Step = 88.414%
Source Step = 90.3457%
Source Step = 90.4057%
Source Step = 90.4657%
Source Step = 90.5257%
Source Step = 90.5857%
Source Step = 90.6457%
Source Step = 90.7057%
Starting source stepping with srcstepmethod=1
Source Step = 3.0303%
Source Step = 13.1629%
Source Step = 13.2309%
Source stepping failed

Pseudo Transient succeeded in finding the operating point at 273.716 ms.

Date: Fri Jan 10 22:16:54 2025
Total elapsed time: 11.369 seconds.

tnom = 27
temp = 27
method = modified trap
totiter = 24297
traniter = 2295
tranpoints = 1145
accept = 1126
rejected = 143
matrix size = 499
fillins = 2515
solver = Normal
Thread vector: 17.8/7.7[6] 4.5/3.7[4] 3.7/3.9[1] 1.0/1.5[1]  2592/500
Matrix Compiler1: 335.34 KB object code size  36.2/11.7/[9.4]
Matrix Compiler2: 82.14 KB object code size  2.9/5.0/[2.7]

