Circuit: * Z:\home\ostoja\Elektronika\voltmeter_module\simulacije\100_push_pull.asc

Fatal Error: Unknown subcircuit called in:
   xu2 vcc_in n003 +v_drv_hs bd679
