Circuit: * Z:\home\ostoja\Elektronika\voltmeter_module\simulacije\200_temperature_sensor.asc

Early termination of direct N-R iteration.
Direct Newton iteration failed to find .op point.  (Use ".option noopiter" to skip.)
Starting Gmin stepping
Gmin = 10
vernier = 0.5
vernier = 0.25
vernier = 0.125
Gmin = 5.5165
vernier = 0.0625
vernier = 0.03125
vernier = 0.015625
vernier = 0.0078125
Gmin = 5.48432
vernier = 0.00390625
vernier = 0.00195313
vernier = 0.000976563
vernier = 0.000488281
Gmin = 0
Gmin stepping failed

Starting source stepping with srcstepmethod=0
Source Step = 3.0303%
Source Step = 33.3333%
Source Step = 63.6364%
Source Step = 93.9394%
Source stepping succeeded in finding the operating point.


Date: Sun Nov 03 13:56:38 2024
Total elapsed time: 0.123 seconds.

tnom = 27
temp = 27
method = modified trap
totiter = 3996
traniter = 2330
tranpoints = 1166
accept = 1147
rejected = 19
matrix size = 57
fillins = 180
solver = Normal
Matrix Compiler1: 15.56 KB object code size  1.2/0.6/[0.6]
Matrix Compiler2: 7.84 KB object code size  0.5/0.5/[0.4]

