Circuit: * C:\users\ostoja\Desktop\Elektronika\voltmeter_module\simulacije\diode_check.asc

Direct Newton iteration for .op point succeeded.

Date: Fri Jan 10 23:15:50 2025
Total elapsed time: 0.148 seconds.

tnom = 27
temp = 27
method = modified trap
totiter = 2122
traniter = 2082
tranpoints = 1042
accept = 1042
rejected = 0
matrix size = 14
fillins = 0
solver = Normal
Matrix Compiler1:      41 opcodes  0.1/[0.1]/0.1
Matrix Compiler2: off  [0.1]/0.2/0.1

